<?xml version="1.0" encoding="UTF-8"?>

<!-- generated on Mon 25 Apr 2022 05:08:47 PM CEST by Eclipse SUMO netedit Version 1.8.0
<configuration xmlns:xsi="http://www.w3.org/2001/XMLSchema-instance" xsi:noNamespaceSchemaLocation="http://sumo.dlr.de/xsd/netconvertConfiguration.xsd">

    <input>
        <sumo-net-file value="/home/captain/TUD/SoSe2022/NSM/project/veins_project/simulations/task01.net.xml"/>
    </input>

    <output>
        <output-file value="/home/captain/TUD/SoSe2022/NSM/project/veins_project/simulations/task01.net.xml"/>
    </output>

    <processing>
        <geometry.min-radius.fix.railways value="false"/>
        <geometry.max-grade.fix value="false"/>
        <offset.disable-normalization value="true"/>
        <lefthand value="false"/>
    </processing>

    <junctions>
        <no-turnarounds value="true"/>
        <junctions.corner-detail value="5"/>
        <junctions.limit-turn-speed value="5.5"/>
        <rectangular-lane-cut value="false"/>
    </junctions>

    <pedestrian>
        <walkingareas value="false"/>
    </pedestrian>

    <netedit>
        <route-files value="/home/captain/TUD/SoSe2022/NSM/project/veins_project/simulations/task01.rou.xml"/>
    </netedit>

    <report>
        <aggregate-warnings value="5"/>
    </report>

</configuration>
-->

<net version="1.6" junctionCornerDetail="5" limitTurnSpeed="5.50" xmlns:xsi="http://www.w3.org/2001/XMLSchema-instance" xsi:noNamespaceSchemaLocation="http://sumo.dlr.de/xsd/net_file.xsd">

    <location netOffset="0.00,0.00" convBoundary="-500.00,0.00,500.00,400.00" origBoundary="-10000000000.00,-10000000000.00,10000000000.00,10000000000.00" projParameter="!"/>

    <edge id=":0_0" function="internal">
        <lane id=":0_0_0" index="0" speed="10.75" length="13.46" shape="4.96,9.28 2.14,5.92 -0.56,3.52 -3.14,2.08 -5.60,1.60"/>
    </edge>
    <edge id=":0_1" function="internal">
        <lane id=":0_1_0" index="0" speed="7.38" length="17.76" shape="4.96,9.28 2.24,4.52 2.24,1.12 4.96,-0.92 10.40,-1.60"/>
    </edge>
    <edge id=":0_2" function="internal">
        <lane id=":0_2_0" index="0" speed="5.56" length="9.40" shape="10.40,1.60 7.52,1.96 6.08,3.04 6.08,4.84 7.52,7.36"/>
    </edge>
    <edge id=":0_3" function="internal">
        <lane id=":0_3_0" index="0" speed="13.89" length="16.00" shape="10.40,1.60 -5.60,1.60"/>
    </edge>
    <edge id=":0_4" function="internal">
        <lane id=":0_4_0" index="0" speed="13.89" length="16.00" shape="-5.60,-1.60 10.40,-1.60"/>
    </edge>
    <edge id=":0_5" function="internal">
        <lane id=":0_5_0" index="0" speed="11.83" length="16.41" shape="-5.60,-1.60 -2.38,-1.04 0.88,0.64 4.18,3.44 7.52,7.36"/>
    </edge>

    <edge id="-gneE0" from="0" to="-1" priority="-1">
        <lane id="-gneE0_0" index="0" speed="13.89" length="494.40" shape="-5.60,1.60 -500.00,1.60"/>
    </edge>
    <edge id="-gneE1" from="2" to="0" priority="-1">
        <lane id="-gneE1_0" index="0" speed="13.89" length="489.60" shape="298.72,400.96 4.96,9.28"/>
    </edge>
    <edge id="-gneE2" from="1" to="0" priority="-1">
        <lane id="-gneE2_0" index="0" speed="13.89" length="489.60" shape="500.00,1.60 10.40,1.60"/>
    </edge>
    <edge id="gneE0" from="-1" to="0" priority="-1">
        <lane id="gneE0_0" index="0" speed="13.89" length="494.40" shape="-500.00,-1.60 -5.60,-1.60"/>
    </edge>
    <edge id="gneE1" from="0" to="2" priority="-1">
        <lane id="gneE1_0" index="0" speed="13.89" length="489.60" shape="7.52,7.36 301.28,399.04"/>
    </edge>
    <edge id="gneE2" from="0" to="1" priority="-1">
        <lane id="gneE2_0" index="0" speed="13.89" length="489.60" shape="10.40,-1.60 500.00,-1.60"/>
    </edge>

    <junction id="-1" type="dead_end" x="-500.00" y="0.00" incLanes="-gneE0_0" intLanes="" shape="-500.00,0.00 -500.00,3.20 -500.00,0.00"/>
    <junction id="0" type="right_before_left" x="0.00" y="0.00" incLanes="-gneE1_0 -gneE2_0 gneE0_0" intLanes=":0_0_0 :0_1_0 :0_2_0 :0_3_0 :0_4_0 :0_5_0" shape="3.68,10.24 8.80,6.40 7.91,4.62 8.00,4.00 8.44,3.56 9.24,3.29 10.40,3.20 10.40,-3.20 -5.60,-3.20 -5.60,3.20 -2.79,3.98 -1.28,4.96 0.30,6.33 1.96,8.09">
        <request index="0" response="000000" foes="001000" cont="0"/>
        <request index="1" response="110000" foes="111000" cont="0"/>
        <request index="2" response="000000" foes="100000" cont="0"/>
        <request index="3" response="000011" foes="100011" cont="0"/>
        <request index="4" response="000000" foes="000010" cont="0"/>
        <request index="5" response="001100" foes="001110" cont="0"/>
    </junction>
    <junction id="1" type="dead_end" x="500.00" y="0.00" incLanes="gneE2_0" intLanes="" shape="500.00,0.00 500.00,-3.20 500.00,0.00"/>
    <junction id="2" type="dead_end" x="300.00" y="400.00" incLanes="gneE1_0" intLanes="" shape="300.00,400.00 302.56,398.08 300.00,400.00"/>

    <connection from="-gneE1" to="-gneE0" fromLane="0" toLane="0" via=":0_0_0" dir="r" state="="/>
    <connection from="-gneE1" to="gneE2" fromLane="0" toLane="0" via=":0_1_0" dir="l" state="="/>
    <connection from="-gneE2" to="gneE1" fromLane="0" toLane="0" via=":0_2_0" dir="r" state="="/>
    <connection from="-gneE2" to="-gneE0" fromLane="0" toLane="0" via=":0_3_0" dir="s" state="="/>
    <connection from="gneE0" to="gneE2" fromLane="0" toLane="0" via=":0_4_0" dir="s" state="="/>
    <connection from="gneE0" to="gneE1" fromLane="0" toLane="0" via=":0_5_0" dir="l" state="="/>

    <connection from=":0_0" to="-gneE0" fromLane="0" toLane="0" dir="r" state="M"/>
    <connection from=":0_1" to="gneE2" fromLane="0" toLane="0" dir="l" state="M"/>
    <connection from=":0_2" to="gneE1" fromLane="0" toLane="0" dir="r" state="M"/>
    <connection from=":0_3" to="-gneE0" fromLane="0" toLane="0" dir="s" state="M"/>
    <connection from=":0_4" to="gneE2" fromLane="0" toLane="0" dir="s" state="M"/>
    <connection from=":0_5" to="gneE1" fromLane="0" toLane="0" dir="l" state="M"/>

</net>
