<?xml version="1.0" encoding="UTF-8"?>

<!-- generated on Tue 26 Apr 2022 03:54:25 PM CEST by Eclipse SUMO netedit Version 1.8.0
<configuration xmlns:xsi="http://www.w3.org/2001/XMLSchema-instance" xsi:noNamespaceSchemaLocation="http://sumo.dlr.de/xsd/netconvertConfiguration.xsd">

    <input>
        <sumo-net-file value="/home/captain/TUD/SoSe2022/NSM/project/veins_project/simulations/task01.net.xml"/>
    </input>

    <output>
        <output-file value="/home/captain/TUD/SoSe2022/NSM/project/veins_project/simulations/task01.net.xml"/>
    </output>

    <processing>
        <geometry.min-radius.fix.railways value="false"/>
        <geometry.max-grade.fix value="false"/>
        <offset.disable-normalization value="true"/>
        <lefthand value="false"/>
    </processing>

    <junctions>
        <no-turnarounds value="true"/>
        <junctions.corner-detail value="5"/>
        <junctions.limit-turn-speed value="5.5"/>
        <rectangular-lane-cut value="false"/>
    </junctions>

    <pedestrian>
        <walkingareas value="false"/>
    </pedestrian>

    <netedit>
        <route-files value="/home/captain/TUD/SoSe2022/NSM/project/veins_project/simulations/task01.rou.xml"/>
    </netedit>

    <report>
        <aggregate-warnings value="5"/>
    </report>

</configuration>
-->

<routes xmlns:xsi="http://www.w3.org/2001/XMLSchema-instance" xsi:noNamespaceSchemaLocation="http://sumo.dlr.de/xsd/routes_file.xsd">
    <route edges="-gneE1 -gneE0" color="yellow" id="route_0"/>
    <route edges="-gneE2 -gneE0" color="yellow" id="route_1"/>
    <flow id="flow_0" begin="0.00" departPos="random" color="blue" route="route_0" end="59.99" number="18"/>
    <flow id="flow_1" begin="0.00" departPos="random" color="blue" route="route_0" end="60.00" number="60"/>
    <flow id="flow_2" begin="0.00" departPos="random" color="magenta" route="route_1" end="3600.00" probability="0.50"/>
</routes>
