<?xml version="1.0" encoding="UTF-8"?>

<!-- generated on So 24 Apr 2022 15:23:22 CEST by Eclipse SUMO GUI Version 1.8.0
-->

<configuration xmlns:xsi="http://www.w3.org/2001/XMLSchema-instance" xsi:noNamespaceSchemaLocation="http://sumo.dlr.de/xsd/sumoConfiguration.xsd">

    <input>
        <net-file value="/home/captain/temp/sumo/subtask01.net.xml"/>
        <route-files value="/home/captain/temp/sumo/subtask01.rou.xml"/>
    </input>

</configuration>
