<?xml version="1.0" encoding="UTF-8"?>

<!-- generated on Sa 23 Apr 2022 23:26:00 CEST by Eclipse SUMO netedit Version 1.8.0
<configuration xmlns:xsi="http://www.w3.org/2001/XMLSchema-instance" xsi:noNamespaceSchemaLocation="http://sumo.dlr.de/xsd/netconvertConfiguration.xsd">

    <output>
        <output-file value="/home/captain/temp/sumo/subtask01.net.xml"/>
    </output>

    <processing>
        <offset.disable-normalization value="true"/>
    </processing>

    <junctions>
        <no-turnarounds value="true"/>
    </junctions>

    <netedit>
        <route-files value="/home/captain/temp/sumo/subtask01\.rou.xml"/>
    </netedit>

    <report>
        <aggregate-warnings value="5"/>
    </report>

</configuration>
-->

<net version="1.6" junctionCornerDetail="5" limitTurnSpeed="5.50" xmlns:xsi="http://www.w3.org/2001/XMLSchema-instance" xsi:noNamespaceSchemaLocation="http://sumo.dlr.de/xsd/net_file.xsd">

    <location netOffset="0.00,0.00" convBoundary="-1000.00,0.00,1000.00,300.00" origBoundary="10000000000.00,10000000000.00,-10000000000.00,-10000000000.00" projParameter="!"/>

    <edge id=":1_0" function="internal">
        <lane id=":1_0_0" index="0" speed="13.89" length="29.68" shape="24.26,8.95 18.45,7.19 9.97,4.73 1.45,2.55 -4.47,1.60"/>
    </edge>
    <edge id=":1_1" function="internal">
        <lane id=":1_1_0" index="0" speed="5.99" length="14.81" shape="24.26,8.95 21.27,6.58 20.68,3.04 22.27,-0.19 25.80,-1.60"/>
    </edge>
    <edge id=":1_2" function="internal">
        <lane id=":1_2_0" index="0" speed="6.12" length="15.54" shape="25.80,1.60 20.18,1.87 18.20,2.67 19.86,4.01 25.17,5.88"/>
    </edge>
    <edge id=":1_3" function="internal">
        <lane id=":1_3_0" index="0" speed="13.89" length="30.27" shape="25.80,1.60 -4.47,1.60"/>
    </edge>
    <edge id=":1_4" function="internal">
        <lane id=":1_4_0" index="0" speed="13.89" length="30.27" shape="-4.47,-1.60 25.80,-1.60"/>
    </edge>
    <edge id=":1_5" function="internal">
        <lane id=":1_5_0" index="0" speed="13.89" length="30.61" shape="-4.47,-1.60 1.60,-0.63 10.43,1.60 19.23,4.11 25.17,5.88"/>
    </edge>

    <edge id="-gneE0" from="2" to="1" priority="-1">
        <lane id="-gneE0_0" index="0" speed="13.89" length="974.20" shape="1000.00,1.60 25.80,1.60"/>
    </edge>
    <edge id="-gneE1" from="1" to="3" priority="-1">
        <lane id="-gneE1_0" index="0" speed="13.89" length="1018.23" shape="25.17,5.88 1000.46,298.47"/>
    </edge>
    <edge id="-gneE2" from="0" to="1" priority="-1">
        <lane id="-gneE2_0" index="0" speed="13.89" length="995.53" shape="-1000.00,-1.60 -4.47,-1.60"/>
    </edge>
    <edge id="gneE0" from="1" to="2" priority="-1">
        <lane id="gneE0_0" index="0" speed="13.89" length="974.20" shape="25.80,-1.60 1000.00,-1.60"/>
    </edge>
    <edge id="gneE1" from="3" to="1" priority="-1">
        <lane id="gneE1_0" index="0" speed="13.89" length="1018.23" shape="999.54,301.53 24.26,8.95"/>
    </edge>
    <edge id="gneE2" from="1" to="0" priority="-1">
        <lane id="gneE2_0" index="0" speed="13.89" length="995.53" shape="-4.47,1.60 -1000.00,1.60"/>
    </edge>

    <junction id="0" type="dead_end" x="-1000.00" y="0.00" incLanes="gneE2_0" intLanes="" shape="-1000.00,0.00 -1000.00,3.20 -1000.00,0.00"/>
    <junction id="1" type="right_before_left" x="0.00" y="0.00" incLanes="gneE1_0 -gneE0_0 -gneE2_0" intLanes=":1_0_0 :1_1_0 :1_2_0 :1_3_0 :1_4_0 :1_5_0" shape="23.80,10.48 25.63,4.35 25.80,3.20 25.80,-3.20 -4.47,-3.20 -4.47,3.20 1.72,3.45 6.24,4.16 9.89,5.27 13.50,6.73 17.86,8.48">
        <request index="0" response="000000" foes="001000" cont="0"/>
        <request index="1" response="110000" foes="111000" cont="0"/>
        <request index="2" response="000000" foes="100000" cont="0"/>
        <request index="3" response="000011" foes="100011" cont="0"/>
        <request index="4" response="000000" foes="000010" cont="0"/>
        <request index="5" response="001100" foes="001110" cont="0"/>
    </junction>
    <junction id="2" type="dead_end" x="1000.00" y="0.00" incLanes="gneE0_0" intLanes="" shape="1000.00,0.00 1000.00,-3.20 1000.00,0.00"/>
    <junction id="3" type="dead_end" x="1000.00" y="300.00" incLanes="-gneE1_0" intLanes="" shape="1000.00,300.00 1000.92,296.93 1000.00,300.00"/>

    <connection from="-gneE0" to="-gneE1" fromLane="0" toLane="0" via=":1_2_0" dir="r" state="="/>
    <connection from="-gneE0" to="gneE2" fromLane="0" toLane="0" via=":1_3_0" dir="s" state="="/>
    <connection from="-gneE2" to="gneE0" fromLane="0" toLane="0" via=":1_4_0" dir="s" state="="/>
    <connection from="-gneE2" to="-gneE1" fromLane="0" toLane="0" via=":1_5_0" dir="L" state="="/>
    <connection from="gneE1" to="gneE2" fromLane="0" toLane="0" via=":1_0_0" dir="s" state="="/>
    <connection from="gneE1" to="gneE0" fromLane="0" toLane="0" via=":1_1_0" dir="l" state="="/>

    <connection from=":1_0" to="gneE2" fromLane="0" toLane="0" dir="s" state="M"/>
    <connection from=":1_1" to="gneE0" fromLane="0" toLane="0" dir="l" state="M"/>
    <connection from=":1_2" to="-gneE1" fromLane="0" toLane="0" dir="r" state="M"/>
    <connection from=":1_3" to="gneE2" fromLane="0" toLane="0" dir="s" state="M"/>
    <connection from=":1_4" to="gneE0" fromLane="0" toLane="0" dir="s" state="M"/>
    <connection from=":1_5" to="-gneE1" fromLane="0" toLane="0" dir="L" state="M"/>

</net>
